<?xml version="1.0" encoding="UTF-8"?>
<!DOCTYPE facilities SYSTEM "http://www.matsim.org/files/dtd/facilities_v1.dtd">
<facilities>

<!-- ====================================================================== -->

	<facility id="0" linkId="1000536" x="369961.06091308594" y="139909.5901412964">
		<attributes>
			<attribute name="other" class="java.lang.String" >0.0</attribute>
			<attribute name="polygon" class="java.lang.String" >369961.06091308594,139909.5901412964:370030.64276123047,139786.94841003418:370004.54986572266,139772.14436340332:369934.6053466797,139894.5803527832:369961.06091308594,139909.5901412964:</attribute>
			<attribute name="residential" class="java.lang.String" >0.0</attribute>
			<attribute name="work" class="java.lang.String" >21297.83619771</attribute>
		</attributes>
	</facility>

<!-- ====================================================================== -->

	<facility id="1" linkId="1000735" x="370961.74670791626" y="140384.09408569336">
		<attributes>
			<attribute name="other" class="java.lang.String" >5929.49517222</attribute>
			<attribute name="polygon" class="java.lang.String" >370961.74670791626,140384.09408569336:370942.1647262573,140396.70489501953:371011.08411216736,140503.72247314453:371030.66609573364,140491.11163330078:370961.74670791626,140384.09408569336:</attribute>
			<attribute name="residential" class="java.lang.String" >0.0</attribute>
			<attribute name="work" class="java.lang.String" >0.0</attribute>
		</attributes>
	</facility>

<!-- ====================================================================== -->

	<facility id="10" linkId="106" x="369829.30041503906" y="140054.65772247314">
		<attributes>
			<attribute name="other" class="java.lang.String" >2227.0</attribute>
			<attribute name="polygon" class="java.lang.String" >369829.30041503906,140054.65772247314:369721.71154785156,139993.6160736084:369712.8291015625,140009.27181243896:369820.41796875,140070.3134613037:369829.30041503906,140054.65772247314:</attribute>
			<attribute name="residential" class="java.lang.String" >12800.0</attribute>
			<attribute name="work" class="java.lang.String" >0.0</attribute>
		</attributes>
	</facility>

<!-- ====================================================================== -->

	<facility id="100" linkId="73" x="370376.7658691406" y="140058.28130340576">
		<attributes>
			<attribute name="other" class="java.lang.String" >0.0</attribute>
			<attribute name="polygon" class="java.lang.String" >370376.7658691406,140058.28130340576:370377.25482177734,140044.89064788818:370406.0334472656,140045.9381942749:370405.10510253906,140071.31602478027:370416.29888916016,140071.72116088867:370416.82275390625,140057.43132019043:370425.1139526367,140057.73528289795:370425.48431396484,140047.54410552979:370415.3913574219,140047.17653656006:370415.8391113281,140034.9864501953:370365.57775878906,140033.16456604004:370364.6790161133,140057.84203338623:370376.7658691406,140058.28130340576:</attribute>
			<attribute name="residential" class="java.lang.String" >8800.0</attribute>
			<attribute name="work" class="java.lang.String" >0.0</attribute>
		</attributes>
	</facility>

<!-- ====================================================================== -->

	<facility id="101" linkId="159" x="370539.18634033203" y="140369.1778869629">
		<attributes>
			<attribute name="other" class="java.lang.String" >0.0</attribute>
			<attribute name="polygon" class="java.lang.String" >370539.18634033203,140369.1778869629:370538.70123291016,140382.56869506836:370509.9223327637,140381.5294494629:370510.8433227539,140356.15133666992:370499.6494445801,140355.74942016602:370499.12966918945,140370.03942871094:370490.8383483887,140369.7378540039:370490.4709777832,140379.9291381836:370500.5640563965,140380.2937927246:370500.11978149414,140392.48400878906:370550.3816833496,140394.29141235352:370551.2732849121,140369.61367797852:370539.18634033203,140369.1778869629:</attribute>
			<attribute name="residential" class="java.lang.String" >8800.0</attribute>
			<attribute name="work" class="java.lang.String" >0.0</attribute>
		</attributes>
	</facility>

<!-- ====================================================================== -->

	<facility id="102" linkId="87" x="370403.6453857422" y="140472.96197509766">
		<attributes>
			<attribute name="other" class="java.lang.String" >0.0</attribute>
			<attribute name="polygon" class="java.lang.String" >370403.6453857422,140472.96197509766:370404.42864990234,140451.1309814453:370380.0498046875,140450.25634765625:370379.2666015625,140472.08697509766:370403.6453857422,140472.96197509766:</attribute>
			<attribute name="residential" class="java.lang.String" >6400.0</attribute>
			<attribute name="work" class="java.lang.String" >0.0</attribute>
		</attributes>
	</facility>

<!-- ====================================================================== -->

	<facility id="104" linkId="811" x="371151.6884918213" y="140298.4287109375">
		<attributes>
			<attribute name="other" class="java.lang.String" >0.0</attribute>
			<attribute name="polygon" class="java.lang.String" >371151.6884918213,140298.4287109375:371150.88890075684,140320.7212524414:371175.73457336426,140321.61239624023:371176.5341644287,140299.31985473633:371151.6884918213,140298.4287109375:</attribute>
			<attribute name="residential" class="java.lang.String" >5600.0</attribute>
			<attribute name="work" class="java.lang.String" >0.0</attribute>
		</attributes>
	</facility>

<!-- ====================================================================== -->

	<facility id="105" linkId="1000741" x="371174.45025152806" y="140467.10741311443">
		<attributes>
			<attribute name="other" class="java.lang.String" >0.0</attribute>
			<attribute name="polygon" class="java.lang.String" >371174.45025152806,140467.10741311443:371195.35245794896,140453.64641457927:371171.1968793357,140416.13777810466:371150.2946729148,140429.5988071574:371174.45025152806,140467.10741311443:</attribute>
			<attribute name="residential" class="java.lang.String" >11200.0</attribute>
			<attribute name="work" class="java.lang.String" >0.0</attribute>
		</attributes>
	</facility>

<!-- ====================================================================== -->

	<facility id="106" linkId="120" x="371007.98727703094" y="139456.83358764648">
		<attributes>
			<attribute name="other" class="java.lang.String" >1098.0</attribute>
			<attribute name="polygon" class="java.lang.String" >371007.98727703094,139456.83358764648:370996.72848308086,139464.09915161133:371003.28481292725,139474.26275634766:371024.03473091125,139460.87521362305:370996.7752572298,139418.6088256836:370986.5272502899,139425.22525024414:370981.05181217194,139416.73864746094:370972.48219680786,139422.26666259766:370976.9819164276,139429.23727416992:370964.9681549072,139436.99249267578:370971.0386123657,139446.4059753418:370992.3753297329,139432.63500976562:371007.98727703094,139456.83358764648:</attribute>
			<attribute name="residential" class="java.lang.String" >8800.0</attribute>
			<attribute name="work" class="java.lang.String" >0.0</attribute>
		</attributes>
	</facility>

<!-- ====================================================================== -->

	<facility id="107" linkId="234" x="371581.5732421875" y="140522.02130126953">
		<attributes>
			<attribute name="other" class="java.lang.String" >0.0</attribute>
			<attribute name="polygon" class="java.lang.String" >371581.5732421875,140522.02130126953:371588.4467163086,140532.662109375:371602.49072265625,140523.61785888672:371595.64666748047,140512.95806884766:371606.5374145508,140505.96575927734:371599.37854003906,140494.8155517578:371563.51220703125,140517.91326904297:371570.7018432617,140529.04364013672:371581.5732421875,140522.02130126953:</attribute>
			<attribute name="residential" class="java.lang.String" >6000.0</attribute>
			<attribute name="work" class="java.lang.String" >0.0</attribute>
		</attributes>
	</facility>

<!-- ====================================================================== -->

	<facility id="109" linkId="740" x="371108.6640965441" y="140514.0650715338">
		<attributes>
			<attribute name="other" class="java.lang.String" >0.0</attribute>
			<attribute name="polygon" class="java.lang.String" >371108.6640965441,140514.0650715338:371129.5662953356,140500.60407299866:371105.4107319811,140463.09546704162:371084.5085179308,140476.55646557678:371108.6640965441,140514.0650715338:</attribute>
			<attribute name="residential" class="java.lang.String" >11200.0</attribute>
			<attribute name="work" class="java.lang.String" >0.0</attribute>
		</attributes>
	</facility>

<!-- ====================================================================== -->

	<facility id="11" linkId="1000683" x="371880.9869995117" y="140936.3920288086">
		<attributes>
			<attribute name="other" class="java.lang.String" >0.0</attribute>
			<attribute name="polygon" class="java.lang.String" >371880.9869995117,140936.3920288086:371822.13482666016,140974.29223632812:371860.0354614258,141033.14404296875:371918.88720703125,140995.244140625:371880.9869995117,140936.3920288086:</attribute>
			<attribute name="residential" class="java.lang.String" >0.0</attribute>
			<attribute name="work" class="java.lang.String" >88199.65753563</attribute>
		</attributes>
	</facility>

<!-- ====================================================================== -->

	<facility id="110" linkId="244" x="371544.49395751953" y="140342.74243164062">
		<attributes>
			<attribute name="other" class="java.lang.String" >0.0</attribute>
			<attribute name="polygon" class="java.lang.String" >371544.49395751953,140342.74243164062:371530.92419433594,140351.52645874023:371576.19140625,140421.65725708008:371589.6675415039,140412.9539489746:371544.49395751953,140342.74243164062:</attribute>
			<attribute name="residential" class="java.lang.String" >14000.0</attribute>
			<attribute name="work" class="java.lang.String" >0.0</attribute>
		</attributes>
	</facility>

<!-- ====================================================================== -->

	<facility id="111" linkId="299" x="371142.68548583984" y="139218.5184326172">
		<attributes>
			<attribute name="other" class="java.lang.String" >1344.0</attribute>
			<attribute name="polygon" class="java.lang.String" >371142.68548583984,139218.5184326172:371151.205078125,139232.25579833984:371222.0917663574,139188.1492919922:371213.6402435303,139174.51385498047:371142.68548583984,139218.5184326172:</attribute>
			<attribute name="residential" class="java.lang.String" >14000.0</attribute>
			<attribute name="work" class="java.lang.String" >0.0</attribute>
		</attributes>
	</facility>

<!-- ====================================================================== -->

	<facility id="112" linkId="340" x="372268.9337158203" y="140688.26580810547">
		<attributes>
			<attribute name="other" class="java.lang.String" >1599.0</attribute>
			<attribute name="polygon" class="java.lang.String" >372268.9337158203,140688.26580810547:372249.0457763672,140679.22833251953:372238.95361328125,140701.4373779297:372258.84118652344,140710.47467041016:372268.9337158203,140688.26580810547:</attribute>
			<attribute name="residential" class="java.lang.String" >4400.0</attribute>
			<attribute name="work" class="java.lang.String" >0.0</attribute>
		</attributes>
	</facility>

<!-- ====================================================================== -->

	<facility id="114" linkId="78" x="370739.6894378662" y="139845.5655670166">
		<attributes>
			<attribute name="other" class="java.lang.String" >0.0</attribute>
			<attribute name="polygon" class="java.lang.String" >370739.6894378662,139845.5655670166:370709.85220336914,139799.25828552246:370637.3869934082,139846.79148864746:370647.13818359375,139861.92140197754:370704.4716796875,139824.14052581787:370724.55838012695,139855.31497955322:370739.6894378662,139845.5655670166:</attribute>
			<attribute name="residential" class="java.lang.String" >11200.0</attribute>
			<attribute name="work" class="java.lang.String" >0.0</attribute>
		</attributes>
	</facility>

<!-- ====================================================================== -->

	<facility id="116" linkId="302" x="369494.9708251953" y="140481.5073852539">
		<attributes>
			<attribute name="other" class="java.lang.String" >980.0</attribute>
			<attribute name="polygon" class="java.lang.String" >369494.9708251953,140481.5073852539:369484.9560546875,140492.50744628906:369533.74865722656,140536.93487548828:369543.7196044922,140525.9828491211:369494.9708251953,140481.5073852539:</attribute>
			<attribute name="residential" class="java.lang.String" >8800.0</attribute>
			<attribute name="work" class="java.lang.String" >0.0</attribute>
		</attributes>
	</facility>

<!-- ====================================================================== -->

	<facility id="117" linkId="363" x="372596.46740722656" y="139854.07592010498">
		<attributes>
			<attribute name="other" class="java.lang.String" >0.0</attribute>
			<attribute name="polygon" class="java.lang.String" >372596.46740722656,139854.07592010498:372599.9777832031,139875.63707351685:372624.05517578125,139871.71674728394:372620.544921875,139850.15592956543:372596.46740722656,139854.07592010498:</attribute>
			<attribute name="residential" class="java.lang.String" >4000.0</attribute>
			<attribute name="work" class="java.lang.String" >0.0</attribute>
		</attributes>
	</facility>

<!-- ====================================================================== -->

	<facility id="118" linkId="396" x="372453.7630302243" y="140394.3136169547">
		<attributes>
			<attribute name="other" class="java.lang.String" >0.0</attribute>
			<attribute name="polygon" class="java.lang.String" >372453.7630302243,140394.3136169547:372467.8226005368,140416.05806275547:372478.8887626462,140418.42933961094:372535.5060722165,140381.8199035758:372537.88143842743,140370.74699708165:372523.8227226071,140349.00657960118:372512.0664970212,140356.61128541172:372522.64742963837,140372.9806091422:372477.02987592743,140401.7206909293:372466.7930595212,140385.88875123204:372453.7630302243,140394.3136169547:</attribute>
			<attribute name="residential" class="java.lang.String" >16800.0</attribute>
			<attribute name="work" class="java.lang.String" >0.0</attribute>
		</attributes>
	</facility>

<!-- ====================================================================== -->

	<facility id="119" linkId="187" x="370898.3093032837" y="139949.50616645813">
		<attributes>
			<attribute name="other" class="java.lang.String" >0.0</attribute>
			<attribute name="polygon" class="java.lang.String" >370898.3093032837,139949.50616645813:370907.0938949585,139963.0755958557:370977.22277641296,139917.80534648895:370968.5188694,139904.32961654663:370898.3093032837,139949.50616645813:</attribute>
			<attribute name="residential" class="java.lang.String" >10800.0</attribute>
			<attribute name="work" class="java.lang.String" >0.0</attribute>
		</attributes>
	</facility>

<!-- ====================================================================== -->

	<facility id="120" linkId="109" x="370043.2507324219" y="140338.43313598633">
		<attributes>
			<attribute name="other" class="java.lang.String" >6991.68594978</attribute>
			<attribute name="polygon" class="java.lang.String" >370043.2507324219,140338.43313598633:370045.18463134766,140270.71871948242:370010.7951660156,140269.73657226562:370008.86126708984,140337.45098876953:370043.2507324219,140338.43313598633:</attribute>
			<attribute name="residential" class="java.lang.String" >0.0</attribute>
			<attribute name="work" class="java.lang.String" >0.0</attribute>
		</attributes>
	</facility>

<!-- ====================================================================== -->

	<facility id="121" linkId="293" x="369364.87854003906" y="139288.72857666016">
		<attributes>
			<attribute name="other" class="java.lang.String" >0.0</attribute>
			<attribute name="polygon" class="java.lang.String" >369364.87854003906,139288.72857666016:369412.25146484375,139205.23120117188:369391.3771972656,139193.38800048828:369344.00427246094,139276.8853149414:369364.87854003906,139288.72857666016:</attribute>
			<attribute name="residential" class="java.lang.String" >12000.0</attribute>
			<attribute name="work" class="java.lang.String" >0.0</attribute>
		</attributes>
	</facility>

<!-- ====================================================================== -->

	<facility id="123" linkId="286" x="370720.3941345215" y="139687.44721984863">
		<attributes>
			<attribute name="other" class="java.lang.String" >0.0</attribute>
			<attribute name="polygon" class="java.lang.String" >370720.3941345215,139687.44721984863:370709.1336669922,139694.71017456055:370693.5217285156,139670.5115966797:370714.86337280273,139656.74822998047:370708.78900146484,139647.33724975586:370696.7712097168,139655.0862121582:370692.2751159668,139648.11325073242:370683.7062072754,139653.64233398438:370689.1813354492,139662.12915039062:370678.92892456055,139668.73876953125:370706.20123291016,139710.99687194824:370726.9516296387,139697.6100769043:370720.3941345215,139687.44721984863:</attribute>
			<attribute name="residential" class="java.lang.String" >8800.0</attribute>
			<attribute name="work" class="java.lang.String" >0.0</attribute>
		</attributes>
	</facility>

<!-- ====================================================================== -->

	<facility id="124" linkId="264" x="370951.0055503845" y="139189.89923095703">
		<attributes>
			<attribute name="other" class="java.lang.String" >0.0</attribute>
			<attribute name="polygon" class="java.lang.String" >370951.0055503845,139189.89923095703:370969.7598648071,139177.82147216797:370956.2988433838,139156.91925048828:370937.5445289612,139168.9970703125:370951.0055503845,139189.89923095703:</attribute>
			<attribute name="residential" class="java.lang.String" >4000.0</attribute>
			<attribute name="work" class="java.lang.String" >0.0</attribute>
		</attributes>
	</facility>

<!-- ====================================================================== -->

	<facility id="126" linkId="287" x="370692.0590209961" y="139545.88806152344">
		<attributes>
			<attribute name="other" class="java.lang.String" >0.0</attribute>
			<attribute name="polygon" class="java.lang.String" >370692.0590209961,139545.88806152344:370703.31689453125,139538.62106323242:370718.9375,139562.81405639648:370697.60076904297,139576.58505249023:370703.67849731445,139585.9938659668:370715.6935119629,139578.24060058594:370720.1921081543,139585.21194458008:370728.7590332031,139579.6798095703:370723.28088378906,139571.19494628906:370733.53091430664,139564.58166503906:370706.24349975586,139522.33331298828:370685.4978942871,139535.7275390625:370692.0590209961,139545.88806152344:</attribute>
			<attribute name="residential" class="java.lang.String" >8800.0</attribute>
			<attribute name="work" class="java.lang.String" >0.0</attribute>
		</attributes>
	</facility>

<!-- ====================================================================== -->

	<facility id="127" linkId="19" x="369187.55810546875" y="139746.34783935547">
		<attributes>
			<attribute name="other" class="java.lang.String" >0.0</attribute>
			<attribute name="polygon" class="java.lang.String" >369187.55810546875,139746.34783935547:369188.0897216797,139888.08889389038:369216.9803466797,139887.98054122925:369216.9803466797,139802.83305358887:369248.6223144531,139802.83305358887:369266.2840576172,139771.70335388184:369221.5936279297,139746.34783935547:369187.55810546875,139746.34783935547:</attribute>
			<attribute name="residential" class="java.lang.String" >0.0</attribute>
			<attribute name="work" class="java.lang.String" >24298.21690221</attribute>
		</attributes>
	</facility>

<!-- ====================================================================== -->

	<facility id="128" linkId="619" x="370014.6180419922" y="139641.7751159668">
		<attributes>
			<attribute name="other" class="java.lang.String" >0.0</attribute>
			<attribute name="polygon" class="java.lang.String" >370014.6180419922,139641.7751159668:370004.7485961914,139659.1703491211:370056.9343261719,139688.77868652344:370066.80377197266,139671.38345336914:370014.6180419922,139641.7751159668:</attribute>
			<attribute name="residential" class="java.lang.String" >1800.0</attribute>
			<attribute name="work" class="java.lang.String" >0.0</attribute>
		</attributes>
	</facility>

<!-- ====================================================================== -->

	<facility id="129" linkId="351" x="371182.20446777344" y="139822.30128479004">
		<attributes>
			<attribute name="other" class="java.lang.String" >0.0</attribute>
			<attribute name="polygon" class="java.lang.String" >371182.20446777344,139822.30128479004:371200.95878601074,139810.2235107422:371187.497756958,139789.3212890625:371168.7434539795,139801.39906311035:371182.20446777344,139822.30128479004:</attribute>
			<attribute name="residential" class="java.lang.String" >5600.0</attribute>
			<attribute name="work" class="java.lang.String" >0.0</attribute>
		</attributes>
	</facility>

<!-- ====================================================================== -->

	<facility id="13" linkId="108" x="369826.7706298828" y="140241.70376586914">
		<attributes>
			<attribute name="other" class="java.lang.String" >0.0</attribute>
			<attribute name="polygon" class="java.lang.String" >369826.7706298828,140241.70376586914:369852.970703125,140195.52471923828:369837.31494140625,140186.6423034668:369822.2247314453,140213.23947143555:369767.5419921875,140163.50997924805:369774.60400390625,140151.062789917:369758.9482421875,140142.1803741455:369744.78479003906,140167.14434814453:369826.7706298828,140241.70376586914:</attribute>
			<attribute name="residential" class="java.lang.String" >22000.0</attribute>
			<attribute name="work" class="java.lang.String" >0.0</attribute>
		</attributes>
	</facility>

<!-- ====================================================================== -->

	<facility id="130" linkId="276" x="370857.8936920166" y="139157.1411743164">
		<attributes>
			<attribute name="other" class="java.lang.String" >0.0</attribute>
			<attribute name="polygon" class="java.lang.String" >370857.8936920166,139157.1411743164:370855.23388671875,139153.02935791016:370859.1332244873,139150.5069580078:370877.82456970215,139154.51544189453:370883.4295349121,139163.19201660156:370891.993850708,139157.65600585938:370883.94023895264,139145.19689941406:370867.741317749,139141.72296142578:370861.84101867676,139132.59814453125:370865.3196411133,139116.40020751953:370857.2621459961,139103.94360351562:370848.69956970215,139109.48223876953:370854.31227111816,139118.15380859375:370850.2984161377,139136.84399414062:370846.3981933594,139139.36499023438:370843.7398376465,139135.25225830078:370835.2272796631,139140.75463867188:370849.3827056885,139162.64654541016:370857.8936920166,139157.1411743164:</attribute>
			<attribute name="residential" class="java.lang.String" >11200.0</attribute>
			<attribute name="work" class="java.lang.String" >0.0</attribute>
		</attributes>
	</facility>

<!-- ====================================================================== -->

	<facility id="131" linkId="199" x="372452.2960205078" y="140591.59930419922">
		<attributes>
			<attribute name="other" class="java.lang.String" >0.0</attribute>
			<attribute name="polygon" class="java.lang.String" >372452.2960205078,140591.59930419922:372355.681640625,140653.83428955078:372373.0106201172,140680.73602294922:372507.45263671875,140594.13409423828:372450.4061279297,140505.5526123047:372412.57275390625,140529.91729736328:372452.2960205078,140591.59930419922:</attribute>
			<attribute name="residential" class="java.lang.String" >0.0</attribute>
			<attribute name="work" class="java.lang.String" >25256.62012843</attribute>
		</attributes>
	</facility>

<!-- ====================================================================== -->

	<facility id="132" linkId="736" x="370650.4889526367" y="140241.14324951172">
		<attributes>
			<attribute name="other" class="java.lang.String" >9590.86383084</attribute>
			<attribute name="polygon" class="java.lang.String" >370650.4889526367,140241.14324951172:370637.9184265137,140249.32751464844:370651.5588684082,140270.27838134766:370620.1113586426,140290.7528076172:370606.4709472656,140269.80194091797:370593.0076904297,140278.56741333008:370591.9323120117,140308.5481262207:370667.35122680664,140311.2533569336:370669.8411254883,140241.83740234375:370650.4889526367,140241.14324951172:</attribute>
			<attribute name="residential" class="java.lang.String" >0.0</attribute>
			<attribute name="work" class="java.lang.String" >0.0</attribute>
		</attributes>
	</facility>

<!-- ====================================================================== -->

	<facility id="133" linkId="370" x="371277.32357788086" y="140018.84828948975">
		<attributes>
			<attribute name="other" class="java.lang.String" >0.0</attribute>
			<attribute name="polygon" class="java.lang.String" >371277.32357788086,140018.84828948975:371296.076751709,140006.7687072754:371282.6137084961,139985.86778640747:371263.86056518555,139997.94737243652:371277.32357788086,140018.84828948975:</attribute>
			<attribute name="residential" class="java.lang.String" >5600.0</attribute>
			<attribute name="work" class="java.lang.String" >0.0</attribute>
		</attributes>
	</facility>

<!-- ====================================================================== -->

	<facility id="134" linkId="279" x="371302.45446777344" y="139337.17456054688">
		<attributes>
			<attribute name="other" class="java.lang.String" >0.0</attribute>
			<attribute name="polygon" class="java.lang.String" >371302.45446777344,139337.17456054688:371233.1945037842,139382.34893798828:371223.07972717285,139366.84130859375:371210.0832977295,139375.31787109375:371224.22912597656,139397.0062866211:371235.3056793213,139399.33380126953:371315.87994384766,139346.7781982422:371318.21127319336,139335.69592285156:371304.06619262695,139314.0115966797:371292.3403625488,139321.6629638672:371302.45446777344,139337.17456054688:</attribute>
			<attribute name="residential" class="java.lang.String" >16800.0</attribute>
			<attribute name="work" class="java.lang.String" >0.0</attribute>
		</attributes>
	</facility>

<!-- ====================================================================== -->

	<facility id="135" linkId="699" x="369865.17529296875" y="139761.0184020996">
		<attributes>
			<attribute name="other" class="java.lang.String" >0.0</attribute>
			<attribute name="polygon" class="java.lang.String" >369865.17529296875,139761.0184020996:369822.2928466797,139836.6008758545:369900.57165527344,139881.01302719116:369912.9083251953,139859.26893615723:369856.37365722656,139827.1934890747:369886.91931152344,139773.35511779785:369865.17529296875,139761.0184020996:</attribute>
			<attribute name="residential" class="java.lang.String" >0.0</attribute>
			<attribute name="work" class="java.lang.String" >15189.99292984</attribute>
		</attributes>
	</facility>

<!-- ====================================================================== -->

	<facility id="136" linkId="42" x="369887.2769867031" y="140339.3136921357">
		<attributes>
			<attribute name="other" class="java.lang.String" >1884.64848331</attribute>
			<attribute name="polygon" class="java.lang.String" >369887.2769867031,140339.3136921357:369876.1735931484,140351.68194775094:369918.3619476406,140389.5557575654:369929.4653411953,140377.18750195016:369887.2769867031,140339.3136921357:</attribute>
			<attribute name="residential" class="java.lang.String" >0.0</attribute>
			<attribute name="work" class="java.lang.String" >0.0</attribute>
		</attributes>
	</facility>

<!-- ====================================================================== -->

	<facility id="137" linkId="369" x="371270.4372253418" y="140128.96768188477">
		<attributes>
			<attribute name="other" class="java.lang.String" >0.0</attribute>
			<attribute name="polygon" class="java.lang.String" >371270.4372253418,140128.96768188477:371289.19036865234,140116.88809204102:371275.72735595703,140095.9871826172:371256.9741821289,140108.06675720215:371270.4372253418,140128.96768188477:</attribute>
			<attribute name="residential" class="java.lang.String" >5600.0</attribute>
			<attribute name="work" class="java.lang.String" >0.0</attribute>
		</attributes>
	</facility>

<!-- ====================================================================== -->

	<facility id="138" linkId="329" x="372362.71325683594" y="140098.51399230957">
		<attributes>
			<attribute name="other" class="java.lang.String" >0.0</attribute>
			<attribute name="polygon" class="java.lang.String" >372362.71325683594,140098.51399230957:372365.3625488281,140102.6325531006:372373.8874511719,140097.148727417:372359.77966308594,140075.22608947754:372351.2569580078,140080.712600708:372353.90771484375,140084.8302307129:372350.0028076172,140087.3440246582:372331.3203125,140083.29444885254:372325.734375,140074.6055908203:372317.1579589844,140080.12274169922:372325.18420410156,140092.59954833984:372341.37536621094,140096.1091156006:372347.2556152344,140105.24687194824:372343.7413330078,140121.43710327148:372351.771484375,140133.9114074707:372360.34619140625,140128.3916015625:372354.75256347656,140119.7077331543:372358.8074951172,140101.02641296387:372362.71325683594,140098.51399230957:</attribute>
			<attribute name="residential" class="java.lang.String" >8800.0</attribute>
			<attribute name="work" class="java.lang.String" >0.0</attribute>
		</attributes>
	</facility>

<!-- ====================================================================== -->

	<facility id="139" linkId="324" x="372289.41467285156" y="139950.61666679382">
		<attributes>
			<attribute name="other" class="java.lang.String" >0.0</attribute>