<?xml version="1.0" encoding="UTF-8"?>
<!DOCTYPE network SYSTEM "http://www.matsim.org/files/dtd/network_v2.dtd">
<network>

<!-- ====================================================================== -->

	<nodes>
		<node id="0" x="370926.6498407743" y="140191.4355607628" >
		</node>
		<node id="1001" x="372496.5710867107" y="140654.9883713737" >
		</node>
		<node id="1008" x="369628.5665797166" y="139523.300342054" >
		</node>
		<node id="1009" x="369811.013592391" y="139626.8129088169" >
		</node>
		<node id="101" x="369477.2719708583" y="139786.8278091058" >
		</node>
		<node id="1011" x="371274.4353474794" y="139402.1586753283" >
		</node>
		<node id="1014" x="369869.1022604677" y="140472.9487272314" >
		</node>
		<node id="1015" x="369976.2277334985" y="140569.1186118152" >
		</node>
		<node id="1019" x="371662.0652551552" y="140777.3241150826" >
		</node>
		<node id="1021" x="371803.968091474" y="140997.6698852502" >
		</node>
		<node id="1023" x="370739.8840990493" y="140672.8984624783" >
		</node>
		<node id="103" x="369513.3729907691" y="139723.8717234192" >
		</node>
		<node id="1031" x="369258.5800000003" y="139941.83" >
		</node>
		<node id="1033" x="369275.4000000001" y="139945.29" >
		</node>
		<node id="1035" x="369291.26" y="139951.97" >
		</node>
		<node id="1037" x="369306.33" y="139962.3" >
		</node>
		<node id="1039" x="369368.3840992573" y="140018.7296078672" >
		</node>
		<node id="1040" x="369576.9685044866" y="140208.4150050205" >
		</node>
		<node id="1041" x="369430.4388459249" y="140075.1582777422" >
		</node>
		<node id="1043" x="370490.0453460689" y="140663.9369504636" >
		</node>
		<node id="1045" x="369721.2334231568" y="140339.6121367941" >
		</node>
		<node id="1048" x="370191.4860850362" y="140653.2278379653" >
		</node>
		<node id="105" x="369427.5088730709" y="139675.1126065705" >
		</node>
		<node id="1053" x="370358.021861109" y="140659.2013601223" >
		</node>
		<node id="1058" x="369724.1972698196" y="140986.934047003" >
		</node>
		<node id="1059" x="369677.6312579904" y="140940.8491058577" >
		</node>
		<node id="1061" x="369662.593708569" y="140906.8762734241" >
		</node>
		<node id="1063" x="369660.405038383" y="140873.7993613202" >
		</node>
		<node id="1065" x="369696.8811758698" y="140738.4990480273" >
		</node>
		<node id="1066" x="371689.8912736083" y="139989.4116551" >
		</node>
		<node id="1068" x="371215.6972883487" y="139950.2504290572" >
		</node>
		<node id="1071" x="369940.2852787353" y="139930.1038752146" >
		</node>
		<node id="1074" x="371313.707834884" y="139589.9699883111" >
		</node>
		<node id="1075" x="371274.5678221536" y="139529.1936396967" >
		</node>
		<node id="1076" x="372229.1083504957" y="139718.5483605089" >
		</node>
		<node id="1078" x="370425.0128205827" y="140011.1870660219" >
		</node>
		<node id="108" x="369681.237655633" y="140208.8617875762" >
		</node>
		<node id="1081" x="370337.9962840603" y="140008.0659891611" >
		</node>
		<node id="1082" x="371060.2907464598" y="140489.3197706636" >
		</node>
		<node id="1083" x="371036.5159257042" y="140452.4023888416" >
		</node>
		<node id="1084" x="370809.2633199856" y="139914.8326229563" >
		</node>
		<node id="1085" x="370944.6237668898" y="140125.0171832584" >
		</node>
		<node id="1086" x="370331.4102929762" y="140191.6853485293" >
		</node>
		<node id="1087" x="370333.684085175" y="140128.2913564114" >
		</node>
		<node id="1088" x="370327.5343725667" y="140299.7471441589" >
		</node>
		<node id="109" x="369708.2925375749" y="140233.4659875716" >
		</node>
		<node id="1090" x="370549.825718489" y="139511.9796596528" >
		</node>
		<node id="1091" x="370351.2017534217" y="139639.8936376815" >
		</node>
		<node id="1095" x="370340.2150202619" y="139946.190453563" >
		</node>
		<node id="1096" x="371386.1382078899" y="139543.3247753927" >
		</node>
		<node id="1098" x="371460.685077782" y="139495.3165369393" >
		</node>
		<node id="11" x="370893.8469564478" y="139550.7993795822" >
		</node>
		<node id="1100" x="370760.0109330298" y="139376.6202285507" >
		</node>
		<node id="1104" x="371757.9017191951" y="139601.216230479" >
		</node>
		<node id="1105" x="371653.96047959" y="139668.160772851" >
		</node>
		<node id="1106" x="371052.9102959695" y="140293.1660091303" >
		</node>
		<node id="1109" x="371807.438167748" y="139805.4143161938" >
		</node>
		<node id="111" x="369724.4957618038" y="140215.6488539654" >
		</node>
		<node id="1111" x="371640.9696864728" y="139913.446543515" >
		</node>
		<node id="1113" x="371187.5967061594" y="139671.1856469724" >
		</node>
		<node id="1115" x="371322.9456850768" y="139881.354631431" >
		</node>
		<node id="1116" x="371998.0018525168" y="140738.2864840502" >
		</node>
		<node id="1117" x="371910.9308417381" y="140794.3740294406" >
		</node>
		<node id="1121" x="371783.1790852689" y="140596.0019624226" >
		</node>
		<node id="1122" x="372200.621265563" y="140413.0828575027" >
		</node>
		<node id="1123" x="372161.5115891829" y="140352.3536149692" >
		</node>
		<node id="1124" x="372220.6526777833" y="140594.8640274062" >
		</node>
		<node id="1125" x="372289.2370311156" y="140550.6848224541" >
		</node>
		<node id="1128" x="370569.0172238297" y="140541.6897567989" >
		</node>
		<node id="1129" x="370573.4977962994" y="140416.7700847279" >
		</node>
		<node id="1130" x="371743.3141607778" y="140383.7876338262" >
		</node>
		<node id="1131" x="371674.8906581274" y="140427.8524193203" >
		</node>
		<node id="1132" x="371133.76720918" y="139310.5593945288" >
		</node>
		<node id="1133" x="371054.2702333876" y="139187.1170250075" >
		</node>
		<node id="1134" x="372835.6912834889" y="140198.6815849855" >
		</node>
		<node id="1135" x="372737.4492517745" y="140261.9650402221" >
		</node>
		<node id="1136" x="372520.9216560453" y="140275.2407960519" >
		</node>
		<node id="1137" x="372450.2605250982" y="140166.3579983384" >
		</node>
		<node id="1139" x="370323.6584521572" y="140407.8089397885" >
		</node>
		<node id="1142" x="372881.9380250139" y="140265.3100708606" >
		</node>
		<node id="1144" x="371948.4392803455" y="140251.6869075686" >
		</node>
		<node id="1145" x="371885.0758726683" y="140292.4929882181" >
		</node>
		<node id="1146" x="372116.3908960387" y="140286.5100292127" >
		</node>
		<node id="1147" x="372048.4093411234" y="140187.3061156862" >
		</node>
		<node id="1150" x="372414.8511945771" y="140111.7952292371" >
		</node>
		<node id="1151" x="372366.5155797298" y="140037.3141545185" >
		</node>
		<node id="1153" x="372341.4030836881" y="139998.6179322825" >
		</node>
		<node id="1156" x="372121.1009469477" y="140658.9911366702" >
		</node>
		<node id="117" x="371436.2845664832" y="139858.9285218028" >
		</node>
		<node id="1171" x="369407.3948340797" y="140108.5453033356" >
		</node>
		<node id="1173" x="369372.7457626844" y="140160.8875086812" >
		</node>
		<node id="1175" x="369338.4444502676" y="140228.5781719258" >
		</node>
		<node id="1177" x="369313.3332178676" y="140297.444431605" >
		</node>
		<node id="1179" x="369304.0614191378" y="140357.0341074561" >
		</node>
		<node id="1181" x="369301.625713625" y="140466.7235571241" >
		</node>
		<node id="1185" x="369385.8050899887" y="140480.0622624999" >
		</node>
		<node id="1187" x="369457.7185181465" y="140520.5314483216" >
		</node>
		<node id="1189" x="369562.0426771619" y="140615.5949829452" >
		</node>
		<node id="119" x="371479.5210135081" y="139926.0657860475" >
		</node>
		<node id="1191" x="369277.7805140496" y="139193.2207120449" >
		</node>
		<node id="1193" x="369933.3908065984" y="138986.0317060543" >
		</node>
		<node id="1199" x="371431.2583788398" y="140049.5418540776" >
		</node>
		<node id="1201" x="371492.8224971118" y="140009.5888925978" >
		</node>
		<node id="1204" x="369686.7078809762" y="140478.8140914536" >
		</node>
		<node id="1205" x="369771.7272045806" y="140385.5320967974" >
		</node>
		<node id="1206" x="369834.2881000046" y="140275.265247941" >
		</node>
		<node id="1209" x="372145.871254081" y="139589.2983568317" >
		</node>
		<node id="121" x="371525.1341965848" y="139896.6908629563" >
		</node>
		<node id="1211" x="371105.9508990594" y="139155.1065549709" >
		</node>
		<node id="1216" x="369616.8495419643" y="139746.5996804767" >
		</node>
		<node id="1221" x="370845.8121659605" y="140426.5373555475" >
		</node>
		<node id="1224" x="370587.8356282024" y="140017.0271341005" >
		</node>
		<node id="1225" x="370647.2663739929" y="140019.1587740498" >
		</node>
		<node id="1227" x="370738.9422050088" y="139960.1194721693" >
		</node>
		<node id="1232" x="369312.4321399674" y="139573.8857102291" >
		</node>
		<node id="1237" x="369759.0206329766" y="139293.3681546353" >
		</node>
		<node id="124" x="371912.5090228073" y="139949.5831703875" >
		</node>
		<node id="1241" x="369532.1075095294" y="139895.9617592048" >
		</node>
		<node id="1243" x="371861.8429588003" y="139534.2716881071" >
		</node>
		<node id="1244" x="370968.8362101531" y="140347.3097815711" >
		</node>
		<node id="1249" x="371049.7201938677" y="140057.3286292669" >
		</node>
		<node id="1250" x="372229.3367014269" y="140827.0588885141" >
		</node>
		<node id="1253" x="371776.7883277865" y="140124.3448165852" >
		</node>
		<node id="1256" x="369934.2228935152" y="140099.1249498171" >
		</node>
		<node id="126" x="371874.9717745267" y="139973.7571855936" >
		</node>
		<node id="1265" x="370564.53665136" y="140666.60942887" >
		</node>
		<node id="1268" x="372636.7458741676" y="140055.4457762354" >
		</node>
		<node id="1271" x="372578.6782301369" y="140364.2387683337" >
		</node>
		<node id="1278" x="369853.1666528609" y="140880.9518387328" >
		</node>
		<node id="1279" x="370064.8579630755" y="140648.6871389911" >
		</node>
		<node id="1280" x="371615.0300313762" y="140704.2881358349" >
		</node>
		<node id="1297" x="370914.3226729619" y="139277.2433557521" >
		</node>
		<node id="130" x="369432.2205929698" y="140246.8686107301" >
		</node>
		<node id="1306" x="369227.6901947042" y="139723.2478384147" >
		</node>
		<node id="1310" x="372695.8990373687" y="139973.2858026339" >
		</node>
		<node id="1314" x="371993.3653760687" y="140460.6442010252" >
		</node>
		<node id="1316" x="369884.9579039327" y="140320.7531142513" >
		</node>
		<node id="1317" x="369960.0018306472" y="140388.1223922267" >
		</node>
		<node id="1318" x="371943.0235692295" y="140493.0637887687" >
		</node>
		<node id="132" x="369432.2205929698" y="140173.9245292393" >
		</node>
		<node id="1320" x="370270.6022350197" y="140297.7050280857" >
		</node>
		<node id="1321" x="370202.6145273722" y="140295.2663564224" >
		</node>
		<node id="1323" x="370196.7633194421" y="140458.392135152" >
		</node>
		<node id="1324" x="370580.6224336314" y="140218.1331102866" >
		</node>
		<node id="1325" x="370583.0387821161" y="140150.7646071874" >
		</node>
		<node id="1327" x="372243.9038542423" y="139526.165290996" >
		</node>
		<node id="1330" x="369376.0963444492" y="139461.6742214842" >
		</node>
		<node id="1332" x="369477.4873753819" y="139282.9671411638" >
		</node>
		<node id="1334" x="369648.8468861052" y="139230.8600814621" >
		</node>
		<node id="1336" x="369648.2044995454" y="140106.0374490041" >
		</node>
		<node id="1337" x="369548.4738285138" y="140015.3405691957" >
		</node>
		<node id="1339" x="369717.2310971276" y="140168.7680049663" >
		</node>
		<node id="134" x="369493.1958159297" y="140173.9245292393" >
		</node>
		<node id="1340" x="369357.7290726937" y="139797.026573654" >
		</node>
		<node id="1345" x="371834.515899303" y="140562.9415731968" >
		</node>
		<node id="1347" x="370678.5293068872" y="140221.6447977065" >
		</node>
		<node id="1350" x="371556.1481749604" y="139781.7362707267" >
		</node>
		<node id="1351" x="371614.9165179519" y="139872.9913586015" >
		</node>
		<node id="1352" x="371706.9222181294" y="139555.6257785827" >
		</node>
		<node id="1353" x="371564.6304183256" y="139428.3756619951" >
		</node>
		<node id="1354" x="371131.5010259698" y="140184.3053888869" >
		</node>
		<node id="1355" x="371225.6968528404" y="140330.5582522819" >
		</node>
		<node id="1357" x="371088.9545061412" y="140418.629045447" >
		</node>
		<node id="1359" x="371533.1250928484" y="139745.9861836165" >
		</node>
		<node id="136" x="369528.7963207805" y="140206.1180620752" >
		</node>
		<node id="1361" x="371447.8831421864" y="139800.8872353995" >
		</node>
		<node id="1362" x="372041.7679807492" y="140806.2462337128" >
		</node>
		<node id="1363" x="371881.8963569198" y="140909.2036757869" >
		</node>
		<node id="1365" x="371761.1282353563" y="140721.6757485953" >
		</node>
		<node id="1367" x="371833.9225887887" y="140674.7961320174" >
		</node>
		<node id="1368" x="369315.365422426" y="139871.6947220093" >
		</node>
		<node id="1369" x="369342.0743474839" y="139824.6188452605" >
		</node>
		<node id="1370" x="371524.4616972781" y="139392.4531812652" >
		</node>
		<node id="1371" x="371481.0519043618" y="139353.6322427624" >
		</node>
		<node id="1372" x="372527.9159570674" y="139824.6599995283" >
		</node>
		<node id="1373" x="372455.6365398118" y="139925.0515034188" >
		</node>
		<node id="1376" x="370371.035045418" y="140534.588605448" >
		</node>
		<node id="1379" x="369291.6165205569" y="139913.5534031388" >
		</node>
		<node id="1384" x="370798.715795679" y="140218.9908783792" >
		</node>
		<node id="1385" x="370788.4724861104" y="140225.5881988849" >
		</node>
		<node id="1389" x="370578.2060851467" y="140285.5016133857" >
		</node>
		<node id="1392" x="369488.1677203169" y="140297.8600903208" >
		</node>
		<node id="1393" x="369579.6570535204" y="140381.245541653" >
		</node>
		<node id="1395" x="369742.1929947594" y="140529.3844813889" >
		</node>
		<node id="1396" x="369790.8022061214" y="139845.293300042" >
		</node>
		<node id="1399" x="369633.0813699184" y="139221.9153730592" >
		</node>
		<node id="1401" x="369485.6984913423" y="139268.4946091687" >
		</node>
		<node id="1405" x="369526.8720150661" y="139995.6954885233" >
		</node>
		<node id="142" x="370394.4320581593" y="140143.9997311599" >
		</node>
		<node id="1420" x="371590.6607298246" y="140160.3492945094" >
		</node>
		<node id="1421" x="371532.169494931" y="140070.2192723661" >
		</node>
		<node id="1433" x="370865.7616691541" y="140175.8092179067" >
		</node>
		<node id="144" x="370396.6657299017" y="140081.7792368285" >
		</node>
		<node id="1444" x="369914.4145011466" y="140686.3510646656" >
		</node>
		<node id="1447" x="370194.2576376032" y="140528.2480189447" >
		</node>
		<node id="1458" x="370757.1235161599" y="140097.9633964001" >
		</node>
		<node id="1459" x="370731.4002507779" y="140114.4637528454" >
		</node>
		<node id="146" x="370527.1937619895" y="140086.4609678754" >
		</node>
		<node id="1462" x="371103.4272595379" y="140202.3866187585" >
		</node>
		<node id="1463" x="371050.5396240544" y="140200.4896646627" >
		</node>
		<node id="1465" x="371051.8679508377" y="140165.6930177257" >
		</node>
		<node id="1466" x="370825.6314472488" y="140596.7702742873" >
		</node>
		<node id="1467" x="370893.4423268649" y="140596.7702742873" >
		</node>
		<node id="1471" x="370675.2308590637" y="140313.6064885938" >
		</node>
		<node id="1473" x="370724.5791018898" y="140315.376493066" >
		</node>
		<node id="1474" x="371502.1029299477" y="139499.7300938867" >
		</node>
		<node id="1475" x="371625.1409447453" y="139609.7617453895" >
		</node>
		<node id="1479" x="371143.8166415894" y="140503.8186005115" >
		</node>
		<node id="148" x="370190.7839048019" y="140625.0919622985" >
		</node>
		<node id="1481" x="371242.1007661172" y="140440.5235528009" >
		</node>
		<node id="1483" x="371752.3963134005" y="139492.455698348" >
		</node>
		<node id="1485" x="371569.5805685023" y="139360.8525632928" >
		</node>
		<node id="1486" x="372024.0115352878" y="140092.3951969448" >
		</node>
		<node id="1487" x="371978.0510340125" y="140121.6972154684" >
		</node>
		<node id="1488" x="372934.5514767428" y="140227.2189842247" >
		</node>
		<node id="1489" x="372932.2888455666" y="140230.3616347211" >
		</node>
		<node id="1492" x="370264.579323319" y="140465.6255694088" >
		</node>
		<node id="1493" x="370265.1932029982" y="140448.5104242515" >
		</node>
		<node id="1495" x="371689.4945249824" y="140300.2168652137" >
		</node>
		<node id="1496" x="369884.8885080141" y="140659.4404054971" >
		</node>
		<node id="1497" x="369866.1237390834" y="140679.4501665357" >
		</node>
		<node id="1499" x="369471.6980947955" y="140315.9931080285" >
		</node>
		<node id="150" x="370193.3239900355" y="140554.2736424173" >
		</node>
		<node id="1501" x="372542.4364990476" y="139835.1144331396" >
		</node>
		<node id="1503" x="372545.6097795428" y="139856.5668120991" >
		</node>
		<node id="1504" x="369462.2018988942" y="139470.4893186746" >
		</node>
		<node id="1505" x="369445.0195916109" y="139500.7759611827" >
		</node>
		<node id="1507" x="371231.4463571945" y="139974.7003338598" >
		</node>
		<node id="1508" x="370890.7272339291" y="140214.5719259362" >
		</node>
		<node id="1509" x="370904.3575469749" y="140235.7349899292" >
		</node>
		<node id="1510" x="371241.7059358356" y="139550.1446644874" >
		</node>
		<node id="1511" x="371166.6701801101" y="139597.9835488161" >
		</node>
		<node id="1512" x="371200.1206119059" y="139926.0630351032" >
		</node>
		<node id="1514" x="370268.9460775185" y="140343.8791840348" >
		</node>
		<node id="1515" x="370269.4303495823" y="140330.3775371314" >
		</node>
		<node id="1516" x="370266.4557605792" y="140414.1168674554" >
		</node>
		<node id="1517" x="370267.6835199373" y="140379.0796589912" >
		</node>
		<node id="1518" x="370149.5139404178" y="140419.6028777923" >
		</node>
		<node id="1519" x="370151.1131776094" y="140375.017757026" >
		</node>
		<node id="1520" x="370148.1850906493" y="140456.6498697739" >
		</node>
		<node id="1523" x="372104.7829215121" y="139798.6140272377" >
		</node>
		<node id="1525" x="372061.9202475229" y="140321.5891664915" >
		</node>
		<node id="1527" x="372700.333292067" y="140159.4916824198" >
		</node>
		<node id="1529" x="372475.5484862342" y="140157.2481978353" >
		</node>
		<node id="1530" x="371865.3778363802" y="139876.3981809851" >
		</node>
		<node id="1532" x="372789.4244214283" y="140342.6519471933" >
		</node>
		<node id="1533" x="372772.3799983289" y="140316.191970436" >
		</node>
		<node id="1534" x="370370.103403622" y="140560.5630514441" >
		</node>
		<node id="1536" x="371901.4943633396" y="139853.1391113437" >
		</node>
		<node id="1539" x="370263.3648472676" y="140499.4855172387" >
		</node>
		<node id="1541" x="370948.0069572738" y="140303.5135007691" >
		</node>
		<node id="1542" x="371176.4867800448" y="139283.0479598078" >
		</node>
		<node id="1544" x="371260.6627000188" y="139227.700870618" >
		</node>
		<node id="1545" x="371318.8948933358" y="139188.4418045722" >
		</node>
		<node id="1547" x="371390.9981770922" y="139224.022733773" >
		</node>
		<node id="1549" x="371956.6053475936" y="139817.6475973835" >
		</node>
		<node id="155" x="370741.4051279974" y="139890.73296434" >
		</node>
		<node id="1551" x="372555.0368409292" y="140378.8690833828" >
		</node>
		<node id="1553" x="370934.3766442277" y="140282.350436776" >
		</node>
		<node id="1555" x="370708.0788725791" y="139912.1950970788" >
		</node>
		<node id="1561" x="370154.9952012108" y="140266.7901754159" >
		</node>
		<node id="1562" x="370271.5611128536" y="140270.9708291195" >
		</node>
		<node id="1564" x="370190.3213864955" y="140085.8881602586" >
		</node>
		<node id="1565" x="370247.352750408" y="140087.9337400685" >
		</node>
		<node id="1566" x="370237.3314627288" y="139907.4726031765" >
		</node>
		<node id="1567" x="370180.2819085434" y="139905.4263709246" >
		</node>
		<node id="157" x="370703.000255664" y="139831.0981367916" >
		</node>
		<node id="1571" x="370373.0276896134" y="140479.0469607801" >
		</node>
		<node id="1573" x="369697.1683997549" y="140191.116227132" >
		</node>
		<node id="1575" x="369619.0698513484" y="140138.0740308699" >
		</node>
		<node id="1577" x="369543.4170251867" y="140138.0740308699" >
		</node>
		<node id="1579" x="369498.2249045874" y="140096.9780569597" >
		</node>
		<node id="1581" x="369599.9727299152" y="140358.6155213181" >
		</node>
		<node id="1584" x="370144.1250328115" y="140569.8401894921" >
		</node>
		<node id="1587" x="369335.046116947" y="139882.8607423015" >
		</node>
		<node id="1588" x="370367.561482555" y="140631.432554897" >
		</node>
		<node id="159" x="370630.3894270405" y="139878.9462686846" >
		</node>
		<node id="1591" x="369391.4083440267" y="139738.1123027232" >
		</node>
		<node id="1595" x="370472.381673996" y="139391.7250680508" >
		</node>
		<node id="1596" x="371827.8405880997" y="139900.5721961911" >
		</node>
		<node id="1599" x="369309.7797430109" y="139805.2495608566" >
		</node>
		<node id="16" x="369569.4729772043" y="139646.4266309378" >
		</node>
		<node id="1600" x="369363.9891633015" y="139882.8607423015" >
		</node>
		<node id="1602" x="369358.184075087" y="139451.5115332233" >
		</node>
		<node id="1604" x="369662.1809636539" y="139584.2657100745" >
		</node>
		<node id="1605" x="369619.3862332013" y="139559.6692744223" >
		</node>
		<node id="1607" x="370427.0535938981" y="139954.2897085796" >
		</node>
		<node id="1608" x="370428.5561362339" y="139912.8554810355" >
		</node>
		<node id="1609" x="370430.9695947558" y="139912.9420460707" >
		</node>
		<node id="1611" x="370549.9041020971" y="139917.2079448712" >
		</node>
		<node id="1612" x="370308.0583409788" y="139945.0308075267" >
		</node>
		<node id="1615" x="371062.4329475872" y="140377.446547639" >
		</node>
		<node id="1617" x="371064.3167782348" y="140322.8326979489" >
		</node>
		<node id="1619" x="371135.4849821013" y="140325.7669854718" >
		</node>
		<node id="162" x="370156.9456696087" y="140212.4067839523" >
		</node>
		<node id="1621" x="371138.0545556199" y="140263.4445543547" >
		</node>
		<node id="1623" x="372806.6492124913" y="140369.3919294456" >
		</node>
		<node id="1626" x="370590.0349934962" y="139917.6095648505" >
		</node>
		<node id="1627" x="370628.9525992855" y="139919.0054471018" >
		</node>
		<node id="1628" x="372237.1605674371" y="140620.4910828956" >
		</node>
		<node id="1631" x="370617.7697460816" y="139371.7611148513" >
		</node>
		<node id="1635" x="370935.3718280536" y="139309.8453019631" >
		</node>
		<node id="1637" x="370796.2643806809" y="139399.6587816622" >
		</node>
		<node id="164" x="370273.5115812515" y="140216.5874376559" >
		</node>
		<node id="1643" x="370889.4394149899" y="139238.6048175126" >
		</node>
		<node id="1645" x="371087.2484523144" y="139124.9115938734" >
		</node>
		<node id="1647" x="370278.9390178072" y="140126.327780638" >
		</node>
		<node id="1651" x="370520.1273932779" y="140283.4184684051" >
		</node>
		<node id="1653" x="370524.9600902471" y="140148.6814622067" >
		</node>
		<node id="1655" x="370971.5708265416" y="139893.0690862917" >
		</node>
		<node id="1656" x="370933.9025885726" y="139834.5648432945" >
		</node>
		<node id="1657" x="370905.8998392411" y="139791.0823624059" >
		</node>
		<node id="1660" x="371180.6255206072" y="140152.6691785959" >
		</node>
		<node id="1661" x="371259.8422695234" y="140275.6764137078" >
		</node>
		<node id="1662" x="369464.6863372236" y="140276.4586256963" >
		</node>
		<node id="1665" x="369724.9290043514" y="140548.3920929081" >
		</node>
		<node id="1666" x="369563.3291320343" y="140399.2185751727" >
		</node>
		<node id="1668" x="369806.362044959" y="139667.2159924496" >
		</node>
		<node id="1672" x="369902.4743665516" y="140301.2411916571" >
		</node>
		<node id="1675" x="369861.6954488674" y="140346.6656076842" >
		</node>
		<node id="1677" x="372617.1452461579" y="140422.1747219154" >
		</node>
		<node id="1678" x="371481.89774956" y="139829.5535987116" >
		</node>
		<node id="1681" x="372223.8804058692" y="140398.1039542214" >
		</node>
		<node id="1683" x="372720.8076954836" y="139991.2194247374" >
		</node>
		<node id="1684" x="370661.7593433062" y="139439.8943238237" >
		</node>
		<node id="1685" x="370682.9972838575" y="139472.788670056" >
		</node>
		<node id="1686" x="371120.7096788348" y="139627.2855673397" >
		</node>
		<node id="1689" x="371416.7070634621" y="139752.4772299654" >
		</node>
		<node id="169" x="370513.4758600722" y="140484.0857606444" >
		</node>
		<node id="1691" x="371342.0404743224" y="139474.8501111955" >
		</node>
		<node id="1693" x="371647.0821172681" y="140445.7611398681" >
		</node>
		<node id="1695" x="371716.4449941038" y="140342.0653724667" >
		</node>
		<node id="1697" x="372065.3182280141" y="140791.0798573383" >
		</node>
		<node id="1699" x="372022.1141272972" y="140505.2858569482" >
		</node>
		<node id="1701" x="372141.6307440266" y="140270.2555487432" >
		</node>
		<node id="1703" x="372317.2458030358" y="140594.1659922002" >
		</node>
		<node id="1704" x="371661.0453695196" y="140317.794168152" >
		</node>
		<node id="1707" x="371927.337972712" y="140218.9209389476" >
		</node>
		<node id="1709" x="372310.623989366" y="139951.1899636672" >
		</node>
		<node id="171" x="370515.2624337244" y="140434.2879898263" >
		</node>
		<node id="1711" x="369900.9732912525" y="140641.5474700835" >
		</node>
		<node id="1713" x="371832.6063119722" y="139668.0237917975" >
		</node>
		<node id="173" x="370374.8142632655" y="140429.2491899621" >
		</node>
		<node id="176" x="370853.6841593942" y="140296.1362100704" >
		</node>
		<node id="177" x="370818.5725452536" y="140318.7478150338" >
		</node>
		<node id="178" x="370877.3251944785" y="140332.8423911145" >
		</node>
		<node id="180" x="370822.097186647" y="140368.4087963214" >
		</node>
		<node id="182" x="370722.8046973832" y="140364.8474101406" >
		</node>
		<node id="188" x="370712.5383875934" y="140026.6836109512" >
		</node>
		<node id="190" x="370770.7940843862" y="139990.2449809118" >
		</node>
		<node id="192" x="370859.1456387563" y="140131.4956634158" >
		</node>
		<node id="194" x="370803.3208048322" y="140168.2090512283" >
		</node>
		<node id="198" x="370588.4948667073" y="139960.0802242796" >
		</node>
		<node id="20" x="369259.9511974883" y="139809.628057785" >
		</node>
		<node id="200" x="370548.1323772506" y="139958.6325174767" >
		</node>
		<node id="204" x="370386.6911044415" y="139952.8420017768" >
		</node>
		<node id="206" x="370390.3231896531" y="139867.9204758111" >
		</node>
		<node id="208" x="370430.133847476" y="139869.3483897214" >
		</node>
		<node id="21" x="369295.7666889402" y="139829.9483012548" >
		</node>
		<node id="212" x="369840.9094311467" y="140047.8502859026" >
		</node>
		<node id="213" x="369720.1042533176" y="139979.3103740826" >
		</node>
		<node id="214" x="369783.1863570154" y="140149.5902218041" >
		</node>
		<node id="216" x="369662.3811791864" y="140081.0503099842" >
		</node>
		<node id="218" x="370000.3831824491" y="140340.6113961186" >
		</node>
		<node id="219" x="370002.9039859558" y="140253.673054919" >
		</node>
		<node id="221" x="369908.2394081063" y="140199.773319182" >
		</node>
		<node id="223" x="369868.1522033711" y="140270.4291132751" >
		</node>
		<node id="227" x="369944.5534822826" y="140339.0169287321" >
		</node>
		<node id="230" x="371051.3958687964" y="139234.9354173763" >
		</node>
		<node id="232" x="371134.700001935" y="139364.289515228" >
		</node>
		<node id="234" x="371087.8071822163" y="139394.5654450318" >
		</node>
		<node id="236" x="371103.8235136827" y="139419.3723113733" >
		</node>
		<node id="238" x="371034.8420497158" y="139463.9095768513" >
		</node>
		<node id="24" x="370218.3157733143" y="140411.5839209354" >
		</node>
		<node id="242" x="369667.5561633617" y="139805.4520551734" >
		</node>
		<node id="244" x="369781.9283587382" y="139870.3421561329" >
		</node>
		<node id="248" x="369882.1645099982" y="140581.1290897714" >
		</node>
		<node id="249" x="369882.1645099982" y="140623.6946924256" >
		</node>
		<node id="25" x="370217.0532386177" y="140446.7837578624" >
		</node>
		<node id="253" x="369977.1564875788" y="140641.5474700835" >
		</node>
		<node id="255" x="369977.1564875788" y="140609.7405960647" >
		</node>
		<node id="257" x="369945.7643491314" y="140581.1290897714" >
		</node>
		<node id="260" x="370281.0019626672" y="140068.8122740461" >
		</node>
		<node id="261" x="370248.0823169695" y="140067.5932107643" >
		</node>
		<node id="264" x="370035.0518762931" y="140534.0454000463" >
		</node>
		<node id="265" x="370041.1372750771" y="140391.0323269707" >
		</node>
		<node id="266" x="369979.0452983171" y="140532.7069309144" >
		</node>
		<node id="268" x="369896.512782415" y="140457.7461215796" >
		</node>
		<node id="274" x="369404.3379275985" y="140390.1564885495" >
		</node>
		<node id="275" x="369455.2275548677" y="140436.2936309085" >
		</node>
		<node id="277" x="369522.6656054917" y="140362.2852271039" >
		</node>
		<node id="28" x="370303.7534379911" y="140467.132441852" >
		</node>
		<node id="283" x="370697.3468541487" y="140593.899888597" >
		</node>
		<node id="285" x="370700.7339951734" y="140444.4899447117" >
		</node>
		<node id="287" x="370827.1052154071" y="140447.1750361369" >
		</node>
		<node id="29" x="370308.6093077462" y="140331.7831441139" >
		</node>
		<node id="290" x="370653.3811550342" y="139947.4204669777" >
		</node>
		<node id="292" x="370627.9661160035" y="139946.5088897832" >
		</node>
		<node id="296" x="371053.086847005" y="140129.4723431572" >
		</node>
		<node id="297" x="370992.0420592007" y="140127.2828113471" >
		</node>
		<node id="3" x="370940.2802383816" y="140212.6007505249" >
		</node>
		<node id="300" x="370990.7430125904" y="140163.5006111091" >
		</node>
		<node id="304" x="371208.1907881746" y="140134.917126225" >
		</node>
		<node id="305" x="371176.5720924406" y="140085.8198280766" >
		</node>
		<node id="307" x="371149.0068248743" y="140103.5718804467" >
		</node>